LAMMPS (11 Aug 2017)

# ----------------- Init Section -----------------

include "spce2.in.init"
units real                              # angstroms, kCal/mole, Daltons, Kelvin
atom_style full                         # select column format for Atoms section
pair_style lj/cut/coul/long 10.35       # params needed: epsilon sigma
bond_style harmonic                     # parameters needed: k_bond, r0
angle_style harmonic                    # parameters needed: k_theta, theta0
kspace_style ewald 0.0001               # long-range electrostatics sum method
pair_modify tail yes

# ----------------- Atom Definition Section -----------------

read_data "spce2.data"
  orthogonal box = (0 0 0) to (34.5 34.5 34.5)
  reading atoms ...
  3000 atoms
  scanning bonds ...
  scanning angles ...
  reading bonds ...
  2000 bonds
  reading angles ...
  1000 angles

# ----------------- Settings Section -----------------

include "spce2.in.settings"
# -- Non-bonded (Pair) interactions --
# atomType1 atomType2 parameter-list (epsilon, sigma)
pair_coeff 1 1 0.1553 3.5532
pair_coeff 2 2 0.0 2.058
# (mixing rules determine interactions between types @atom:O and @atom:H)
# -- Bonded interactions --
# bondType parameter list (k_bond, r0)
bond_coeff 1 554.1349 1.0
# angleType parameter-list (k_theta, theta0)
angle_coeff 1 45.7696 109.47
# Group definitions and constraints can also go in the "In Settings" section
group spce type 1 2
3000 atoms in group spce
#fix fSHAKE spce shake 0.0001 10 100 b @bond:OH a @angle:HOH
# (lammps quirk: Remember to "unfix fSHAKE" during minimization.)

# ----------------- Run Section -----------------

# The lines above define the system you want to simulate.
# What you do next is up to you.
# Typically a user would minimize and equilibrate
# the system using commands similar to the following:
#  ----   examples   ----
#
#  -- minimize --
# minimize 1.0e-5 1.0e-7 1000 10000
# (Note: Some fixes, for example "shake", interfere with the minimize command,
#        You can use the "unfix" command to disable them before minimization.)
#  -- declare time step for normal MD --
# timestep 1.0
#  -- run at constant pressure (Nose-Hoover)--
# fix   fxnpt all npt temp 300.0 300.0 100.0 iso 1.0 1.0 1000.0 drag 1.0
#  -- ALTERNATELY, run at constant volume (Nose-Hoover) --
# fix   fxnvt all nvt temp 300.0 300.0 500.0 tchain 1
#  -- ALTERNATELY, run at constant volume using Langevin dynamics. --
#  -- (This is good for sparse CG polymers in implicit solvent.)   --
# fix fxLAN all langevin 300.0 300.0 5000 48279
# fix fxNVE all nve  #(<--needed by fix langevin)
#  -- Now, finally run the simulation --
# run   50000
#  ---- (end of examples) ----

timestep        1.0
dump            1 all custom 100 traj_npt.lammpstrj id mol type x y z vx vy vz
fix             fxnpt all npt temp 300.0 300.0 100.0 iso 1.0 1.0 1000.0 drag 1.0
thermo          100
run             10000
Ewald initialization ...
  G vector (1/distance) = 0.244483
  estimated absolute RMS force accuracy = 0.0398566
  estimated relative force accuracy = 0.000120027
  KSpace vectors: actual max1d max3d = 709 7 1687
                  kxmax kymax kzmax  = 7 7 7
  update every 1 steps, delay 10 steps, check yes
Step Temp E_pair E_mol TotEng Press Volume
0            0   -1310.6675 4.1265464e-10   -1310.6675    6999.8506    41063.625
Averages over the last 51 of 101 rows, steps 5000 to 10000:
Temp E_pair E_mol TotEng Press Volume
299.838 -4524.15 540.343 -1303.42 12.0727 70843
Loop time of 130.57 on 8 procs for 10000 steps with 3000 atoms
